Circuit: * Z:\home\yhe\×ÀÃæ\AM Demodulator THD Analyzer V1.0.0\AM_THD_Analyzer_Test.asc

WARNING: Less than two connections to node TIMESCALE.  This node is used by B:U1:_TIME.
WARNING: Less than two connections to node S_TIME.  This node is used by B:U1:_STROBETIME.
WARNING: Less than two connections to node E_TIME.  This node is used by B:U1:_ENDTIME.
WARNING: Less than two connections to node H2SF.  This node is used by B:U1:_H2S.
WARNING: Less than two connections to node H2CF.  This node is used by B:U1:_H2C.
WARNING: Less than two connections to node H3SF.  This node is used by B:U1:_H3S.
WARNING: Less than two connections to node H3CF.  This node is used by B:U1:_H3C.
WARNING: Less than two connections to node H4SF.  This node is used by B:U1:_H4S.
WARNING: Less than two connections to node H4CF.  This node is used by B:U1:_H4C.
WARNING: Less than two connections to node H5SF.  This node is used by B:U1:_H5S.
WARNING: Less than two connections to node H5CF.  This node is used by B:U1:_H5C.
WARNING: Less than two connections to node H6SF.  This node is used by B:U1:_H6S.
WARNING: Less than two connections to node H6CF.  This node is used by B:U1:_H6C.
WARNING: Less than two connections to node H7SF.  This node is used by B:U1:_H7S.
WARNING: Less than two connections to node H7CF.  This node is used by B:U1:_H7C.
WARNING: Less than two connections to node H8SF.  This node is used by B:U1:_H8S.
WARNING: Less than two connections to node H8CF.  This node is used by B:U1:_H8C.
WARNING: Less than two connections to node H9SF.  This node is used by B:U1:_H9S.
WARNING: Less than two connections to node H9CF.  This node is used by B:U1:_H9C.
WARNING: Less than two connections to node H10SF.  This node is used by B:U1:_H10S.
WARNING: Less than two connections to node H10CF.  This node is used by B:U1:_H10C.
Direct Newton iteration for .op point succeeded.
Ignoring empty pin current: Ix(u1:analyzer_in)
Ignoring empty pin current: Ix(u1:analyzer_in)
.step ac=0.001
